Version 4
SHEET 1 880 680
SYMBOL AutoGenerated\\CMOS_NOT 208 208 R0
SYMATTR InstName U1
SYMBOL AutoGenerated\\CMOS_NOT 0 208 R0
SYMATTR InstName U2
